data_CONTCAR001
_audit_creation_date              2022-01-18
_audit_creation_method            'Materials Studio'
_symmetry_space_group_name_H-M    'P1'
_symmetry_Int_Tables_number       1
_symmetry_cell_setting            triclinic
loop_
_symmetry_equiv_pos_as_xyz
  x,y,z
_cell_length_a                    18.3759
_cell_length_b                    9.1831
_cell_length_c                    21.4888
_cell_angle_alpha                 90.0000
_cell_angle_beta                  90.0000
_cell_angle_gamma                 90.3143
loop_
_atom_site_label
_atom_site_type_symbol
_atom_site_fract_x
_atom_site_fract_y
_atom_site_fract_z
_atom_site_U_iso_or_equiv
_atom_site_adp_type
_atom_site_occupancy
Ti1    Ti    0.11986   0.40240   0.05835   0.00000  Uiso   1.00
Ti2    Ti    0.11986   0.40240   0.19687   0.00000  Uiso   1.00
Ti3    Ti    0.11986   0.40240   0.33450   0.00000  Uiso   1.00
Ti4    Ti    0.11986   0.40240   0.47025   0.00000  Uiso   1.00
Ti5    Ti    0.24486   0.15240   0.00000   0.00000  Uiso   1.00
Ti6    Ti    0.24486   0.15240   0.14109   0.00000  Uiso   1.00
Ti7    Ti    0.24486   0.15240   0.28437   0.00000  Uiso   1.00
Ti8    Ti    0.24486   0.15240   0.43288   0.00000  Uiso   1.00
Ti9    Ti    0.36986   0.40240   0.05835   0.00000  Uiso   1.00
Ti10   Ti    0.36986   0.40240   0.19687   0.00000  Uiso   1.00
Ti11   Ti    0.36986   0.40240   0.33450   0.00000  Uiso   1.00
Ti12   Ti    0.36986   0.40240   0.47025   0.00000  Uiso   1.00
Ti13   Ti    0.49486   0.15240   0.00000   0.00000  Uiso   1.00
Ti14   Ti    0.49486   0.15240   0.14109   0.00000  Uiso   1.00
Ti15   Ti    0.49486   0.15240   0.28437   0.00000  Uiso   1.00
Ti16   Ti    0.49486   0.15240   0.43288   0.00000  Uiso   1.00
Ti17   Ti    0.11986   0.90240   0.05835   0.00000  Uiso   1.00
Ti18   Ti    0.11986   0.90240   0.19687   0.00000  Uiso   1.00
Ti19   Ti    0.11986   0.90240   0.33450   0.00000  Uiso   1.00
Ti20   Ti    0.11986   0.90240   0.47025   0.00000  Uiso   1.00
Ti21   Ti    0.24486   0.65240   0.00000   0.00000  Uiso   1.00
Ti22   Ti    0.24486   0.65240   0.14109   0.00000  Uiso   1.00
Ti23   Ti    0.24486   0.65240   0.28437   0.00000  Uiso   1.00
Ti24   Ti    0.24486   0.65240   0.43288   0.00000  Uiso   1.00
Ti25   Ti    0.36986   0.90240   0.05835   0.00000  Uiso   1.00
Ti26   Ti    0.36986   0.90240   0.19687   0.00000  Uiso   1.00
Ti27   Ti    0.36986   0.90240   0.33450   0.00000  Uiso   1.00
Ti28   Ti    0.36986   0.90240   0.47025   0.00000  Uiso   1.00
Ti29   Ti    0.49486   0.65240   0.00000   0.00000  Uiso   1.00
Ti30   Ti    0.49486   0.65240   0.14109   0.00000  Uiso   1.00
Ti31   Ti    0.49486   0.65240   0.28437   0.00000  Uiso   1.00
Ti32   Ti    0.49486   0.65240   0.43288   0.00000  Uiso   1.00
Ti33   Ti    0.61986   0.40240   0.05835   0.00000  Uiso   1.00
Ti34   Ti    0.61986   0.40240   0.19687   0.00000  Uiso   1.00
Ti35   Ti    0.61986   0.40240   0.33450   0.00000  Uiso   1.00
Ti36   Ti    0.61986   0.40240   0.47025   0.00000  Uiso   1.00
Ti37   Ti    0.74486   0.15240   0.00000   0.00000  Uiso   1.00
Ti38   Ti    0.74486   0.15240   0.14109   0.00000  Uiso   1.00
Ti39   Ti    0.74486   0.15240   0.28437   0.00000  Uiso   1.00
Ti40   Ti    0.74486   0.15240   0.43288   0.00000  Uiso   1.00
Ti41   Ti    0.86986   0.40240   0.05835   0.00000  Uiso   1.00
Ti42   Ti    0.86986   0.40240   0.19687   0.00000  Uiso   1.00
Ti43   Ti    0.86986   0.40240   0.33450   0.00000  Uiso   1.00
Ti44   Ti    0.86986   0.40240   0.47025   0.00000  Uiso   1.00
Ti45   Ti    0.99486   0.15240   0.00000   0.00000  Uiso   1.00
Ti46   Ti    0.99486   0.15240   0.14109   0.00000  Uiso   1.00
Ti47   Ti    0.99486   0.15240   0.28437   0.00000  Uiso   1.00
Ti48   Ti    0.99486   0.15240   0.43288   0.00000  Uiso   1.00
Ti49   Ti    0.61986   0.90240   0.05835   0.00000  Uiso   1.00
Ti50   Ti    0.61986   0.90240   0.19687   0.00000  Uiso   1.00
Ti51   Ti    0.61986   0.90240   0.33450   0.00000  Uiso   1.00
Ti52   Ti    0.61986   0.90240   0.47025   0.00000  Uiso   1.00
Ti53   Ti    0.74486   0.65240   0.00000   0.00000  Uiso   1.00
Ti54   Ti    0.74486   0.65240   0.14109   0.00000  Uiso   1.00
Ti55   Ti    0.74486   0.65240   0.28437   0.00000  Uiso   1.00
Ti56   Ti    0.74486   0.65240   0.43288   0.00000  Uiso   1.00
Ti57   Ti    0.86986   0.90240   0.05835   0.00000  Uiso   1.00
Ti58   Ti    0.86986   0.90240   0.19687   0.00000  Uiso   1.00
Ti59   Ti    0.86986   0.90240   0.33450   0.00000  Uiso   1.00
Ti60   Ti    0.86986   0.90240   0.47025   0.00000  Uiso   1.00
Ti61   Ti    0.99486   0.65240   0.00000   0.00000  Uiso   1.00
Ti62   Ti    0.99486   0.65240   0.14109   0.00000  Uiso   1.00
Ti63   Ti    0.99486   0.65240   0.28437   0.00000  Uiso   1.00
Ti64   Ti    0.99486   0.65240   0.43288   0.00000  Uiso   1.00
O65    O     0.19606   0.05480   0.05835   0.00000  Uiso   1.00
O66    O     0.19585   0.05403   0.20461   0.00000  Uiso   1.00
O67    O     0.19522   0.05266   0.34670   0.00000  Uiso   1.00
O68    O     0.19144   0.04520   0.48956   0.00000  Uiso   1.00
O69    O     0.04366   0.25000   0.05835   0.00000  Uiso   1.00
O70    O     0.04387   0.25077   0.20461   0.00000  Uiso   1.00
O71    O     0.04450   0.25214   0.34670   0.00000  Uiso   1.00
O72    O     0.04828   0.25959   0.48956   0.00000  Uiso   1.00
O73    O     0.16866   0.30480   0.00000   0.00000  Uiso   1.00
O74    O     0.16974   0.30241   0.13538   0.00000  Uiso   1.00
O75    O     0.16929   0.30311   0.27383   0.00000  Uiso   1.00
O76    O     0.17040   0.30085   0.41412   0.00000  Uiso   1.00
O77    O     0.07106   0.00000   0.00000   0.00000  Uiso   1.00
O78    O     0.06998   0.00239   0.13538   0.00000  Uiso   1.00
O79    O     0.07043   0.00169   0.27383   0.00000  Uiso   1.00
O80    O     0.06932   0.00395   0.41412   0.00000  Uiso   1.00
O81    O     0.44606   0.05480   0.05835   0.00000  Uiso   1.00
O82    O     0.44585   0.05403   0.20461   0.00000  Uiso   1.00
O83    O     0.44522   0.05266   0.34670   0.00000  Uiso   1.00
O84    O     0.44143   0.04520   0.48956   0.00000  Uiso   1.00
O85    O     0.29366   0.25000   0.05835   0.00000  Uiso   1.00
O86    O     0.29387   0.25077   0.20461   0.00000  Uiso   1.00
O87    O     0.29450   0.25214   0.34670   0.00000  Uiso   1.00
O88    O     0.29829   0.25959   0.48956   0.00000  Uiso   1.00
O89    O     0.41866   0.30480   0.00000   0.00000  Uiso   1.00
O90    O     0.41974   0.30241   0.13538   0.00000  Uiso   1.00
O91    O     0.41929   0.30311   0.27383   0.00000  Uiso   1.00
O92    O     0.42040   0.30085   0.41412   0.00000  Uiso   1.00
O93    O     0.32106   0.00000   0.00000   0.00000  Uiso   1.00
O94    O     0.31998   0.00239   0.13538   0.00000  Uiso   1.00
O95    O     0.32043   0.00169   0.27383   0.00000  Uiso   1.00
O96    O     0.31932   0.00395   0.41412   0.00000  Uiso   1.00
O97    O     0.19606   0.55480   0.05835   0.00000  Uiso   1.00
O98    O     0.19585   0.55403   0.20461   0.00000  Uiso   1.00
O99    O     0.19522   0.55266   0.34670   0.00000  Uiso   1.00
O100   O     0.19144   0.54520   0.48956   0.00000  Uiso   1.00
O101   O     0.04366   0.75000   0.05835   0.00000  Uiso   1.00
O102   O     0.04387   0.75077   0.20461   0.00000  Uiso   1.00
O103   O     0.04450   0.75214   0.34670   0.00000  Uiso   1.00
O104   O     0.04828   0.75959   0.48956   0.00000  Uiso   1.00
O105   O     0.16866   0.80480   0.00000   0.00000  Uiso   1.00
O106   O     0.16974   0.80241   0.13538   0.00000  Uiso   1.00
O107   O     0.16929   0.80311   0.27383   0.00000  Uiso   1.00
O108   O     0.17040   0.80085   0.41412   0.00000  Uiso   1.00
O109   O     0.07106   0.50000   0.00000   0.00000  Uiso   1.00
O110   O     0.06998   0.50239   0.13538   0.00000  Uiso   1.00
O111   O     0.07043   0.50169   0.27383   0.00000  Uiso   1.00
O112   O     0.06932   0.50395   0.41412   0.00000  Uiso   1.00
O113   O     0.44606   0.55480   0.05835   0.00000  Uiso   1.00
O114   O     0.44585   0.55403   0.20461   0.00000  Uiso   1.00
O115   O     0.44522   0.55266   0.34670   0.00000  Uiso   1.00
O116   O     0.44143   0.54520   0.48956   0.00000  Uiso   1.00
O117   O     0.29366   0.75000   0.05835   0.00000  Uiso   1.00
O118   O     0.29387   0.75077   0.20461   0.00000  Uiso   1.00
O119   O     0.29450   0.75214   0.34670   0.00000  Uiso   1.00
O120   O     0.29829   0.75959   0.48956   0.00000  Uiso   1.00
O121   O     0.41866   0.80480   0.00000   0.00000  Uiso   1.00
O122   O     0.41974   0.80241   0.13538   0.00000  Uiso   1.00
O123   O     0.41929   0.80311   0.27383   0.00000  Uiso   1.00
O124   O     0.42040   0.80085   0.41412   0.00000  Uiso   1.00
O125   O     0.32106   0.50000   0.00000   0.00000  Uiso   1.00
O126   O     0.31998   0.50239   0.13538   0.00000  Uiso   1.00
O127   O     0.32043   0.50169   0.27383   0.00000  Uiso   1.00
O128   O     0.31932   0.50395   0.41412   0.00000  Uiso   1.00
O129   O     0.69606   0.05480   0.05835   0.00000  Uiso   1.00
O130   O     0.69585   0.05403   0.20461   0.00000  Uiso   1.00
O131   O     0.69522   0.05266   0.34670   0.00000  Uiso   1.00
O132   O     0.69144   0.04520   0.48956   0.00000  Uiso   1.00
O133   O     0.54366   0.25000   0.05835   0.00000  Uiso   1.00
O134   O     0.54387   0.25077   0.20461   0.00000  Uiso   1.00
O135   O     0.54450   0.25214   0.34670   0.00000  Uiso   1.00
O136   O     0.54829   0.25959   0.48956   0.00000  Uiso   1.00
O137   O     0.66866   0.30480   0.00000   0.00000  Uiso   1.00
O138   O     0.66974   0.30241   0.13538   0.00000  Uiso   1.00
O139   O     0.66929   0.30311   0.27383   0.00000  Uiso   1.00
O140   O     0.67040   0.30085   0.41412   0.00000  Uiso   1.00
O141   O     0.57106   0.00000   0.00000   0.00000  Uiso   1.00
O142   O     0.56998   0.00239   0.13538   0.00000  Uiso   1.00
O143   O     0.57043   0.00169   0.27383   0.00000  Uiso   1.00
O144   O     0.56932   0.00395   0.41412   0.00000  Uiso   1.00
O145   O     0.94606   0.05480   0.05835   0.00000  Uiso   1.00
O146   O     0.94585   0.05403   0.20461   0.00000  Uiso   1.00
O147   O     0.94522   0.05266   0.34670   0.00000  Uiso   1.00
O148   O     0.94144   0.04520   0.48956   0.00000  Uiso   1.00
O149   O     0.79366   0.25000   0.05835   0.00000  Uiso   1.00
O150   O     0.79387   0.25077   0.20461   0.00000  Uiso   1.00
O151   O     0.79450   0.25214   0.34670   0.00000  Uiso   1.00
O152   O     0.79829   0.25959   0.48956   0.00000  Uiso   1.00
O153   O     0.91866   0.30480   0.00000   0.00000  Uiso   1.00
O154   O     0.91974   0.30241   0.13538   0.00000  Uiso   1.00
O155   O     0.91929   0.30311   0.27383   0.00000  Uiso   1.00
O156   O     0.92040   0.30085   0.41412   0.00000  Uiso   1.00
O157   O     0.82106   0.00000   0.00000   0.00000  Uiso   1.00
O158   O     0.81998   0.00239   0.13538   0.00000  Uiso   1.00
O159   O     0.82043   0.00169   0.27383   0.00000  Uiso   1.00
O160   O     0.81932   0.00395   0.41412   0.00000  Uiso   1.00
O161   O     0.69606   0.55480   0.05835   0.00000  Uiso   1.00
O162   O     0.69585   0.55403   0.20461   0.00000  Uiso   1.00
O163   O     0.69522   0.55266   0.34670   0.00000  Uiso   1.00
O164   O     0.69144   0.54521   0.48956   0.00000  Uiso   1.00
O165   O     0.54366   0.75000   0.05835   0.00000  Uiso   1.00
O166   O     0.54387   0.75077   0.20461   0.00000  Uiso   1.00
O167   O     0.54450   0.75214   0.34670   0.00000  Uiso   1.00
O168   O     0.54829   0.75960   0.48956   0.00000  Uiso   1.00
O169   O     0.66866   0.80480   0.00000   0.00000  Uiso   1.00
O170   O     0.66974   0.80241   0.13538   0.00000  Uiso   1.00
O171   O     0.66929   0.80311   0.27383   0.00000  Uiso   1.00
O172   O     0.67040   0.80085   0.41412   0.00000  Uiso   1.00
O173   O     0.57106   0.50000   0.00000   0.00000  Uiso   1.00
O174   O     0.56998   0.50239   0.13538   0.00000  Uiso   1.00
O175   O     0.57043   0.50169   0.27383   0.00000  Uiso   1.00
O176   O     0.56932   0.50395   0.41412   0.00000  Uiso   1.00
O177   O     0.94606   0.55480   0.05835   0.00000  Uiso   1.00
O178   O     0.94585   0.55403   0.20461   0.00000  Uiso   1.00
O179   O     0.94522   0.55266   0.34670   0.00000  Uiso   1.00
O180   O     0.94144   0.54521   0.48956   0.00000  Uiso   1.00
O181   O     0.79366   0.75000   0.05835   0.00000  Uiso   1.00
O182   O     0.79387   0.75077   0.20461   0.00000  Uiso   1.00
O183   O     0.79450   0.75214   0.34670   0.00000  Uiso   1.00
O184   O     0.79829   0.75960   0.48956   0.00000  Uiso   1.00
O185   O     0.91866   0.80480   0.00000   0.00000  Uiso   1.00
O186   O     0.91974   0.80241   0.13538   0.00000  Uiso   1.00
O187   O     0.91929   0.80311   0.27383   0.00000  Uiso   1.00
O188   O     0.92040   0.80085   0.41412   0.00000  Uiso   1.00
O189   O     0.82106   0.50000   0.00000   0.00000  Uiso   1.00
O190   O     0.81998   0.50239   0.13538   0.00000  Uiso   1.00
O191   O     0.82043   0.50169   0.27383   0.00000  Uiso   1.00
O192   O     0.81932   0.50395   0.41412   0.00000  Uiso   1.00
O193   O     0.86805   0.40213   0.56231   0.00000  Uiso   1.00
O194   O     0.81310   0.43038   0.61114   0.00000  Uiso   1.00
H195   H     0.81467   0.41577   0.66239   0.00000  Uiso   1.00
loop_
_geom_bond_atom_site_label_1
_geom_bond_atom_site_label_2
_geom_bond_distance
_geom_bond_site_symmetry_2
_ccdc_geom_bond_type
Ti1    Ti2     2.977   .     S
Ti1    O69     1.974   .     S
Ti1    O73     1.786   .     S
Ti1    O74     2.105   .     S
Ti1    O97     1.974   .     S
Ti1    O109    1.786   .     S
Ti1    O110    2.105   .     S
Ti2    Ti3     2.958   .     S
Ti2    O70     1.974   .     S
Ti2    O74     1.854   .     S
Ti2    O75     2.098   .     S
Ti2    O98     1.974   .     S
Ti2    O110    1.854   .     S
Ti2    O111    2.098   .     S
Ti3    Ti4     2.917   .     S
Ti3    O71     1.967   .     S
Ti3    O75     1.834   .     S
Ti3    O76     2.161   .     S
Ti3    O99     1.967   .     S
Ti3    O111    1.834   .     S
Ti3    O112    2.161   .     S
Ti4    O72     1.898   .     S
Ti4    O76     1.788   .     S
Ti4    O100    1.898   .     S
Ti4    O112    1.788   .     S
Ti5    O65     1.781   .     S
Ti5    O73     1.985   .     S
Ti5    O85     1.781   .     S
Ti5    O93     1.985   .     S
Ti6    O65     2.182   .     S
Ti6    O66     1.866   .     S
Ti6    O74     1.959   .     S
Ti6    O85     2.182   .     S
Ti6    O86     1.866   .     S
Ti6    O94     1.959   .     S
Ti7    O66     2.134   .     S
Ti7    O67     1.859   .     S
Ti7    O75     1.979   .     S
Ti7    O86     2.134   .     S
Ti7    O87     1.859   .     S
Ti7    O95     1.979   .     S
Ti8    O67     2.256   .     S
Ti8    O68     1.845   .     S
Ti8    O76     1.978   .     S
Ti8    O87     2.256   .     S
Ti8    O88     1.845   .     S
Ti8    O96     1.978   .     S
Ti9    Ti10    2.977   .     S
Ti9    O85     1.974   .     S
Ti9    O89     1.786   .     S
Ti9    O90     2.105   .     S
Ti9    O113    1.974   .     S
Ti9    O125    1.786   .     S
Ti9    O126    2.105   .     S
Ti10   Ti11    2.958   .     S
Ti10   O86     1.974   .     S
Ti10   O90     1.854   .     S
Ti10   O91     2.098   .     S
Ti10   O114    1.974   .     S
Ti10   O126    1.854   .     S
Ti10   O127    2.098   .     S
Ti11   Ti12    2.917   .     S
Ti11   O87     1.967   .     S
Ti11   O91     1.834   .     S
Ti11   O92     2.161   .     S
Ti11   O115    1.967   .     S
Ti11   O127    1.834   .     S
Ti11   O128    2.161   .     S
Ti12   O88     1.898   .     S
Ti12   O92     1.788   .     S
Ti12   O116    1.898   .     S
Ti12   O128    1.788   .     S
Ti13   O81     1.781   .     S
Ti13   O89     1.985   .     S
Ti13   O133    1.781   .     S
Ti13   O141    1.985   .     S
Ti14   O81     2.182   .     S
Ti14   O82     1.866   .     S
Ti14   O90     1.959   .     S
Ti14   O133    2.182   .     S
Ti14   O134    1.866   .     S
Ti14   O142    1.959   .     S
Ti15   O82     2.134   .     S
Ti15   O83     1.859   .     S
Ti15   O91     1.979   .     S
Ti15   O134    2.134   .     S
Ti15   O135    1.859   .     S
Ti15   O143    1.979   .     S
Ti16   O83     2.256   .     S
Ti16   O84     1.845   .     S
Ti16   O92     1.978   .     S
Ti16   O135    2.256   .     S
Ti16   O136    1.845   .     S
Ti16   O144    1.978   .     S
Ti17   Ti18    2.977   .     S
Ti17   O65     1.974   1_565 S
Ti17   O77     1.786   1_565 S
Ti17   O78     2.105   1_565 S
Ti17   O101    1.974   .     S
Ti17   O105    1.786   .     S
Ti17   O106    2.105   .     S
Ti18   Ti19    2.958   .     S
Ti18   O66     1.974   1_565 S
Ti18   O78     1.854   1_565 S
Ti18   O79     2.098   1_565 S
Ti18   O102    1.974   .     S
Ti18   O106    1.854   .     S
Ti18   O107    2.098   .     S
Ti19   Ti20    2.917   .     S
Ti19   O67     1.967   1_565 S
Ti19   O79     1.834   1_565 S
Ti19   O80     2.161   1_565 S
Ti19   O103    1.967   .     S
Ti19   O107    1.834   .     S
Ti19   O108    2.161   .     S
Ti20   O68     1.898   1_565 S
Ti20   O80     1.788   1_565 S
Ti20   O104    1.898   .     S
Ti20   O108    1.788   .     S
Ti21   O97     1.781   .     S
Ti21   O105    1.985   .     S
Ti21   O117    1.781   .     S
Ti21   O125    1.985   .     S
Ti22   O97     2.182   .     S
Ti22   O98     1.866   .     S
Ti22   O106    1.959   .     S
Ti22   O117    2.182   .     S
Ti22   O118    1.866   .     S
Ti22   O126    1.959   .     S
Ti23   O98     2.134   .     S
Ti23   O99     1.859   .     S
Ti23   O107    1.979   .     S
Ti23   O118    2.134   .     S
Ti23   O119    1.859   .     S
Ti23   O127    1.979   .     S
Ti24   O99     2.256   .     S
Ti24   O100    1.845   .     S
Ti24   O108    1.978   .     S
Ti24   O119    2.256   .     S
Ti24   O120    1.845   .     S
Ti24   O128    1.978   .     S
Ti25   Ti26    2.977   .     S
Ti25   O81     1.974   1_565 S
Ti25   O93     1.786   1_565 S
Ti25   O94     2.105   1_565 S
Ti25   O117    1.974   .     S
Ti25   O121    1.786   .     S
Ti25   O122    2.105   .     S
Ti26   Ti27    2.958   .     S
Ti26   O82     1.974   1_565 S
Ti26   O94     1.854   1_565 S
Ti26   O95     2.098   1_565 S
Ti26   O118    1.974   .     S
Ti26   O122    1.854   .     S
Ti26   O123    2.098   .     S
Ti27   Ti28    2.917   .     S
Ti27   O83     1.967   1_565 S
Ti27   O95     1.834   1_565 S
Ti27   O96     2.161   1_565 S
Ti27   O119    1.967   .     S
Ti27   O123    1.834   .     S
Ti27   O124    2.161   .     S
Ti28   O84     1.898   1_565 S
Ti28   O96     1.788   1_565 S
Ti28   O120    1.898   .     S
Ti28   O124    1.788   .     S
Ti29   O113    1.781   .     S
Ti29   O121    1.985   .     S
Ti29   O165    1.781   .     S
Ti29   O173    1.985   .     S
Ti30   O113    2.182   .     S
Ti30   O114    1.866   .     S
Ti30   O122    1.959   .     S
Ti30   O165    2.182   .     S
Ti30   O166    1.866   .     S
Ti30   O174    1.959   .     S
Ti31   O114    2.134   .     S
Ti31   O115    1.859   .     S
Ti31   O123    1.979   .     S
Ti31   O166    2.134   .     S
Ti31   O167    1.859   .     S
Ti31   O175    1.979   .     S
Ti32   O115    2.256   .     S
Ti32   O116    1.845   .     S
Ti32   O124    1.978   .     S
Ti32   O167    2.256   .     S
Ti32   O168    1.845   .     S
Ti32   O176    1.978   .     S
Ti33   Ti34    2.977   .     S
Ti33   O133    1.974   .     S
Ti33   O137    1.786   .     S
Ti33   O138    2.105   .     S
Ti33   O161    1.974   .     S
Ti33   O173    1.786   .     S
Ti33   O174    2.105   .     S
Ti34   Ti35    2.958   .     S
Ti34   O134    1.974   .     S
Ti34   O138    1.854   .     S
Ti34   O139    2.098   .     S
Ti34   O162    1.974   .     S
Ti34   O174    1.854   .     S
Ti34   O175    2.098   .     S
Ti35   Ti36    2.917   .     S
Ti35   O135    1.967   .     S
Ti35   O139    1.834   .     S
Ti35   O140    2.161   .     S
Ti35   O163    1.967   .     S
Ti35   O175    1.834   .     S
Ti35   O176    2.161   .     S
Ti36   O136    1.898   .     S
Ti36   O140    1.788   .     S
Ti36   O164    1.898   .     S
Ti36   O176    1.788   .     S
Ti37   O129    1.781   .     S
Ti37   O137    1.985   .     S
Ti37   O149    1.781   .     S
Ti37   O157    1.985   .     S
Ti38   O129    2.182   .     S
Ti38   O130    1.866   .     S
Ti38   O138    1.959   .     S
Ti38   O149    2.182   .     S
Ti38   O150    1.866   .     S
Ti38   O158    1.959   .     S
Ti39   O130    2.134   .     S
Ti39   O131    1.859   .     S
Ti39   O139    1.979   .     S
Ti39   O150    2.134   .     S
Ti39   O151    1.859   .     S
Ti39   O159    1.979   .     S
Ti40   O131    2.256   .     S
Ti40   O132    1.845   .     S
Ti40   O140    1.978   .     S
Ti40   O151    2.256   .     S
Ti40   O152    1.845   .     S
Ti40   O160    1.978   .     S
Ti41   Ti42    2.977   .     S
Ti41   O149    1.974   .     S
Ti41   O153    1.786   .     S
Ti41   O154    2.105   .     S
Ti41   O177    1.974   .     S
Ti41   O189    1.786   .     S
Ti41   O190    2.105   .     S
Ti42   Ti43    2.958   .     S
Ti42   O150    1.974   .     S
Ti42   O154    1.854   .     S
Ti42   O155    2.098   .     S
Ti42   O178    1.974   .     S
Ti42   O190    1.854   .     S
Ti42   O191    2.098   .     S
Ti43   Ti44    2.917   .     S
Ti43   O151    1.967   .     S
Ti43   O155    1.834   .     S
Ti43   O156    2.161   .     S
Ti43   O179    1.967   .     S
Ti43   O191    1.834   .     S
Ti43   O192    2.161   .     S
Ti44   O152    1.898   .     S
Ti44   O156    1.788   .     S
Ti44   O180    1.898   .     S
Ti44   O192    1.788   .     S
Ti44   O193    1.979   .     S
Ti45   O69     1.781   1_655 S
Ti45   O77     1.985   1_655 S
Ti45   O145    1.781   .     S
Ti45   O153    1.985   .     S
Ti46   O69     2.182   1_655 S
Ti46   O70     1.866   1_655 S
Ti46   O78     1.959   1_655 S
Ti46   O145    2.182   .     S
Ti46   O146    1.866   .     S
Ti46   O154    1.959   .     S
Ti47   O70     2.134   1_655 S
Ti47   O71     1.859   1_655 S
Ti47   O79     1.979   1_655 S
Ti47   O146    2.134   .     S
Ti47   O147    1.859   .     S
Ti47   O155    1.979   .     S
Ti48   O71     2.256   1_655 S
Ti48   O72     1.845   1_655 S
Ti48   O80     1.978   1_655 S
Ti48   O147    2.256   .     S
Ti48   O148    1.845   .     S
Ti48   O156    1.978   .     S
Ti49   Ti50    2.977   .     S
Ti49   O129    1.974   1_565 S
Ti49   O141    1.786   1_565 S
Ti49   O142    2.105   1_565 S
Ti49   O165    1.974   .     S
Ti49   O169    1.786   .     S
Ti49   O170    2.105   .     S
Ti50   Ti51    2.958   .     S
Ti50   O130    1.974   1_565 S
Ti50   O142    1.854   1_565 S
Ti50   O143    2.098   1_565 S
Ti50   O166    1.974   .     S
Ti50   O170    1.854   .     S
Ti50   O171    2.098   .     S
Ti51   Ti52    2.917   .     S
Ti51   O131    1.967   1_565 S
Ti51   O143    1.834   1_565 S
Ti51   O144    2.161   1_565 S
Ti51   O167    1.967   .     S
Ti51   O171    1.834   .     S
Ti51   O172    2.161   .     S
Ti52   O132    1.898   1_565 S
Ti52   O144    1.788   1_565 S
Ti52   O168    1.898   .     S
Ti52   O172    1.788   .     S
Ti53   O161    1.781   .     S
Ti53   O169    1.985   .     S
Ti53   O181    1.781   .     S
Ti53   O189    1.985   .     S
Ti54   O161    2.182   .     S
Ti54   O162    1.866   .     S
Ti54   O170    1.959   .     S
Ti54   O181    2.182   .     S
Ti54   O182    1.866   .     S
Ti54   O190    1.959   .     S
Ti55   O162    2.134   .     S
Ti55   O163    1.859   .     S
Ti55   O171    1.979   .     S
Ti55   O182    2.134   .     S
Ti55   O183    1.859   .     S
Ti55   O191    1.979   .     S
Ti56   O163    2.256   .     S
Ti56   O164    1.845   .     S
Ti56   O172    1.978   .     S
Ti56   O183    2.256   .     S
Ti56   O184    1.845   .     S
Ti56   O192    1.978   .     S
Ti57   Ti58    2.977   .     S
Ti57   O145    1.974   1_565 S
Ti57   O157    1.786   1_565 S
Ti57   O158    2.105   1_565 S
Ti57   O181    1.974   .     S
Ti57   O185    1.786   .     S
Ti57   O186    2.105   .     S
Ti58   Ti59    2.958   .     S
Ti58   O146    1.974   1_565 S
Ti58   O158    1.854   1_565 S
Ti58   O159    2.098   1_565 S
Ti58   O182    1.974   .     S
Ti58   O186    1.854   .     S
Ti58   O187    2.098   .     S
Ti59   Ti60    2.917   .     S
Ti59   O147    1.967   1_565 S
Ti59   O159    1.834   1_565 S
Ti59   O160    2.161   1_565 S
Ti59   O183    1.967   .     S
Ti59   O187    1.834   .     S
Ti59   O188    2.161   .     S
Ti60   O148    1.898   1_565 S
Ti60   O160    1.788   1_565 S
Ti60   O184    1.898   .     S
Ti60   O188    1.788   .     S
Ti61   O101    1.781   1_655 S
Ti61   O109    1.985   1_655 S
Ti61   O177    1.781   .     S
Ti61   O185    1.985   .     S
Ti62   O101    2.182   1_655 S
Ti62   O102    1.866   1_655 S
Ti62   O110    1.959   1_655 S
Ti62   O177    2.182   .     S
Ti62   O178    1.866   .     S
Ti62   O186    1.959   .     S
Ti63   O102    2.134   1_655 S
Ti63   O103    1.859   1_655 S
Ti63   O111    1.979   1_655 S
Ti63   O178    2.134   .     S
Ti63   O179    1.859   .     S
Ti63   O187    1.979   .     S
Ti64   O103    2.256   1_655 S
Ti64   O104    1.845   1_655 S
Ti64   O112    1.978   1_655 S
Ti64   O179    2.256   .     S
Ti64   O180    1.845   .     S
Ti64   O188    1.978   .     S
O65    Ti17    1.974   1_545 S
O66    Ti18    1.974   1_545 S
O67    Ti19    1.967   1_545 S
O68    Ti20    1.898   1_545 S
O69    Ti45    1.781   1_455 S
O69    Ti46    2.182   1_455 S
O70    Ti46    1.866   1_455 S
O70    Ti47    2.134   1_455 S
O71    Ti47    1.859   1_455 S
O71    Ti48    2.256   1_455 S
O72    Ti48    1.845   1_455 S
O77    Ti45    1.985   1_455 S
O77    Ti17    1.786   1_545 S
O78    Ti17    2.105   1_545 S
O78    Ti46    1.959   1_455 S
O78    Ti18    1.854   1_545 S
O79    Ti18    2.098   1_545 S
O79    Ti47    1.979   1_455 S
O79    Ti19    1.834   1_545 S
O80    Ti19    2.161   1_545 S
O80    Ti48    1.978   1_455 S
O80    Ti20    1.788   1_545 S
O81    Ti25    1.974   1_545 S
O82    Ti26    1.974   1_545 S
O83    Ti27    1.967   1_545 S
O84    Ti28    1.898   1_545 S
O93    Ti25    1.786   1_545 S
O94    Ti25    2.105   1_545 S
O94    Ti26    1.854   1_545 S
O95    Ti26    2.098   1_545 S
O95    Ti27    1.834   1_545 S
O96    Ti27    2.161   1_545 S
O96    Ti28    1.788   1_545 S
O101   Ti61    1.781   1_455 S
O101   Ti62    2.182   1_455 S
O102   Ti62    1.866   1_455 S
O102   Ti63    2.134   1_455 S
O103   Ti63    1.859   1_455 S
O103   Ti64    2.256   1_455 S
O104   Ti64    1.845   1_455 S
O109   Ti61    1.985   1_455 S
O110   Ti62    1.959   1_455 S
O111   Ti63    1.979   1_455 S
O112   Ti64    1.978   1_455 S
O129   Ti49    1.974   1_545 S
O130   Ti50    1.974   1_545 S
O131   Ti51    1.967   1_545 S
O132   Ti52    1.898   1_545 S
O141   Ti49    1.786   1_545 S
O142   Ti49    2.105   1_545 S
O142   Ti50    1.854   1_545 S
O143   Ti50    2.098   1_545 S
O143   Ti51    1.834   1_545 S
O144   Ti51    2.161   1_545 S
O144   Ti52    1.788   1_545 S
O145   Ti57    1.974   1_545 S
O146   Ti58    1.974   1_545 S
O147   Ti59    1.967   1_545 S
O148   Ti60    1.898   1_545 S
O157   Ti57    1.786   1_545 S
O158   Ti57    2.105   1_545 S
O158   Ti58    1.854   1_545 S
O159   Ti58    2.098   1_545 S
O159   Ti59    1.834   1_545 S
O160   Ti59    2.161   1_545 S
O160   Ti60    1.788   1_545 S
O193   O194    1.480   .     S
O194   H195    1.110   .     S
